<routes>                                                  
    <vehicle arrivalPos="-1" depart="0" departLane="best" departPos="0" id="Audinot_7_0" type="private"><route edges="a131 a117 a209 "/></vehicle>
    <vehicle arrivalPos="-1" depart="0" departLane="best" departPos="0" id="Borgo_100_0" type="private"><route edges="b6 b100 b7 b3[1] b3[1]b "/></vehicle>
    <vehicle arrivalPos="-1" depart="0" departLane="best" departPos="0" id="Certosa_9_0" type="private"><route edges="b22[0] b22[1] b2[1][1][1] b2[1][1][1]b "/></vehicle>
    <vehicle arrivalPos="-1" depart="0" departLane="best" departPos="0" id="Costa_12_0" type="private"><route edges="a78[0] a56a a56b a77bc a77cd a53cd a53[0] a53[1][0] a79 a68 a11 b38[0] b38[0]a b46 b49[0] b49[1] b55 b53 b53a "/></vehicle>
    <vehicle arrivalPos="-1" depart="0" departLane="best" departPos="0" id="Gandhi_40_0" type="private"><route edges="b1[0] ba1[1] b1[1] b38[0] b38[0]a b46 b49[0] b49[1] b55 b53 b53a "/></vehicle>
    <vehicle arrivalPos="-1" depart="0" departLane="best" departPos="0" id="Malvasia_70_0" type="private"><route edges="b52 b51 b56[0] b39[0] b39[1][0] b39[1][1][0] b39[1][1][1] b45 a67 a80 a127 a77[1][0] a77[1][1] "/></vehicle>
    <vehicle arrivalPos="-1" depart="0" departLane="best" departPos="0" id="Pepoli_3_0" type="ignoring"><route edges="a210 a43[0] a118 a65 a57[0] a57[1] a62 a159 a42 a39 a35 a38 a15 a14 "/></vehicle>
    <vehicle arrivalPos="-1" depart="0" departLane="best" departPos="0" id="Pertini_20_0" type="private"><route edges="b63[0] b63[1] b4[0] b4[1][1][0] b4[1][1][1] "/></vehicle>
    <vehicle arrivalPos="-1" depart="0" departLane="best" departPos="0" id="Prati_Capraia_10_0" type="private"><route edges="b3[0] b10 "/></vehicle>
    <vehicle arrivalPos="-1" depart="0" departLane="best" departPos="0" id="Silvani_11_0" type="private"><route edges="a203[0] b12 b56[0] b56[1][0] b56[1][1] b5[1][0]+66 b5[1][1][1] b16[0] b16[1] b18 b20+19b b2[1][1][1]b "/></vehicle>
    <vehicle arrivalPos="-1" depart="0" departLane="best" departPos="0" id="Turati_10_0" type="private"><route edges="a195 a61 a58[0] a58[1] a66 a119 a116 a46 a201 a201c a204a[0] a204b[0] a204[1][0] a204[1][1] "/></vehicle>
    <vehicle arrivalPos="-1" depart="0" departLane="best" departPos="0" id="XXI_Aprile_7_0" type="private"><route edges="a8 a9 a211 a45 a206 a32 a40 a41 a160 a61 a58[0] a58[1] a66 a117 a209 "/></vehicle>
    <vehicle arrivalPos="-1" depart="1" departLane="best" departPos="0" id="Gandhi_50_1" type="ignoring"><route edges="b1[0] b25 b23 b17[0] b17[1] b11[0] b11[1][1] b101 b35[0] b35[1][0] b35[1][1][0] b20000+35[1][1][1][0] b35[1][1][1][1] "/></vehicle>
    <vehicle arrivalPos="-1" depart="1" departLane="best" departPos="0" id="Pepoli_9_1" type="private"><route edges="a210 a43[0] a43[1] a201 a201c a204a[0] a204b[0] a54 "/></vehicle>
    <vehicle arrivalPos="-1" depart="2" departLane="best" departPos="0" id="Costa_12_1" type="private"><route edges="a78[0] a56a a56b a77bc a77cd a53cd a53[0] a53[1][0] a79 a68 a11 b38[0] b38[0]a b46 b49[0] b49[1] b55 b53 b53a "/></vehicle>
    <vehicle arrivalPos="-1" depart="2" departLane="best" departPos="0" id="Pertini_20_1" type="private"><route edges="b63[0] b63[1] b4[0] b4[1][1][0] b4[1][1][1] "/></vehicle>
    <vehicle arrivalPos="-1" depart="2" departLane="best" departPos="0" id="Silvani_11_1" type="private"><route edges="a203[0] b12 b56[0] b56[1][0] b56[1][1] b5[1][0]+66 b5[1][1][1] b8 b3[1] b3[1]b "/></vehicle>
    <vehicle arrivalPos="-1" depart="3" departLane="best" departPos="0" id="Gandhi_60_2" type="private"><route edges="b1[0] ba1[1] b1[1] a72[0] a72[1] a69 a161 a122 a1b a1 a204a[0] a204b[0] a204[1][0] a204[1][1] "/></vehicle>
    <vehicle arrivalPos="-1" depart="3" departLane="best" departPos="0" id="Pepoli_3_2" type="ignoring"><route edges="a210 a43[0] a118 a65 a57[0] a57[1] a62 a159 a42 a39 a35 a38 a15 a14  "/></vehicle>
    <vehicle arrivalPos="-1" depart="4" departLane="best" departPos="0" id="Gandhi_30_3" type="private"><route edges="b1[0] b25 b23 b17[0] b17[1] b11[0] b11[1][1] b70 "/></vehicle>
    <vehicle arrivalPos="-1" depart="4" departLane="best" departPos="0" id="Malvasia_70_1" type="private"><route edges="b52 b51 b56[0] b39[0] b39[1][0] b39[1][1][0] b39[1][1][1] b45 a67 a80 a127 a77[1][0] a77ab a77bc a21a a21b a103 a14  "/></vehicle> 
    <vehicle arrivalPos="-1" depart="4" departLane="best" departPos="0" id="Pertini_20_2" type="private"><route edges="b63[0] b63[1] b4[0] b4[1][1][0] b4[1][1][1] "/></vehicle>
    <vehicle arrivalPos="-1" depart="4" departLane="best" departPos="0" id="Prati_Capraia_10_1" type="private"><route edges="b3[0] b10 "/></vehicle>
    <vehicle arrivalPos="-1" depart="4" departLane="best" departPos="0" id="Silvani_7_2" type="private"><route edges="a203[0] a203[1] a203[1]b a202 a34 a113 a209 "/></vehicle>
    <vehicle arrivalPos="-1" depart="5" departLane="best" departPos="0" id="Costa_1_2" type="private"><route edges="a78[0] a56a a56b a77bc a77cd a53cd a53[0] a53[1][0] a79 a68 a11 b2[0] b2[1][0] b2[1][1][0] b2[1][1][1] b2[1][1][1]b "/></vehicle>
    <vehicle arrivalPos="-1" depart="5" departLane="best" departPos="0" id="Pepoli_11_3" type="private"><route edges="a210 a43[0] a43[1] a201 a201c a204a[0] a124 b12 b56[0] b56[1][0] b56[1][1] b5[1][0]+66 b5[1][1][1] b8 b10 "/></vehicle>
    <vehicle arrivalPos="-1" depart="6" departLane="best" departPos="0" id="Borgo_10_1" type="ignoring"><route edges="b6 b100 b7 b9 b16[0] b30 b31 b5[1][1][1] b8 b10 "/></vehicle>
    <vehicle arrivalPos="-1" depart="6" departLane="best" departPos="0" id="Pepoli_10_4" type="private"><route edges="a210 a43[0] a43[1] a201 a201c a204a[0] a204b[0] a204[1][0] a204[1][1] "/></vehicle>
    <vehicle arrivalPos="-1" depart="6" departLane="best" departPos="0" id="Pertini_22_3" type="private"><route edges="b13[0] b14 b17[0] b17[1] b8 b4[1][1][1] "/></vehicle>
    <vehicle arrivalPos="-1" depart="7" departLane="best" departPos="0" id="Costa_12_3" type="private"><route edges="a78[0] a56a a56b a77bc a77cd a53cd a53[0] a53[1][0] a79 a68 a11 b38[0] b38[0]a b46 b49[0] b49[1] b55 b53 b53a "/></vehicle>
    <vehicle arrivalPos="-1" depart="7" departLane="best" departPos="0" id="Gandhi_52_5" type="ignoring"><route edges="b1[0] b25 b23 b17[0] b30 b31 b11[1][1] b101 b35[0] b35[1][0] b35[1][1][0] b20000+35[1][1][1][0] b35[1][1][1][1] "/></vehicle>
    <vehicle arrivalPos="-1" depart="7" departLane="best" departPos="0" id="Silvani_7_3" type="private"><route edges="a203[0] a203[1] a203[1]b a202 a34 a113 a209 "/></vehicle>
    <vehicle arrivalPos="-1" depart="7" departLane="best" departPos="0" id="XXI_Aprile_94_2" type="private"><route edges=" a13 a104 a24 a22 a59 a53cd a53[0] a78[1][1] a189[0] a189[1][0]+20000 a189[1][1] a188 a87[0] a20001+87[1][0] a87[1][1] am90 a171 a161 a122 a1b a1 a204a[0] a204b[0] a54 "/></vehicle>
    <vehicle arrivalPos="-1" depart="8" departLane="best" departPos="0" id="Pepoli_11_5" type="private"><route edges="a210 a43[0] a43[1] a201 a201c a204a[0] a124 b12 b56[0] b39[0] b39[1][0] b39[1][1][0] b39[1][1][1] b45 a67 a80 a127 a77[1][0] a77[1][1] "/></vehicle>
    <vehicle arrivalPos="-1" depart="8" departLane="best" departPos="0" id="Pertini_23_4" type="private"><route edges="b13[0] b14 b17[0] b29[0] b29[1] b4[1][1][0] b4[1][1][1] "/></vehicle>
    <vehicle arrivalPos="-1" depart="9" departLane="best" departPos="0" id="Gandhi_60_6" type="private"><route edges="b1[0] ba1[1] b1[1] a72[0] a72[1] a69 a161 a122 a1b a1 a204a[0] a124 b12 b56[0] b56[1][0] b56[1][1] b70 "/></vehicle>
    <vehicle arrivalPos="-1" depart="9" departLane="best" departPos="0" id="Malvasia_100_2" type="private"><route edges="b52 b51 b56[0] b56[1][0] b56[1][1] b5[1][0]+66 b5[1][1][1] b8 b3[1] b3[1]b "/></vehicle>
    <vehicle arrivalPos="-1" depart="9" departLane="best" departPos="0" id="Prati_Capraia_100_2" type="private"><route edges="b3[0] b3[1] b3[1]b "/></vehicle>
    <vehicle arrivalPos="-1" depart="9" departLane="best" departPos="0" id="Silvani_7_4" type="private"><route edges="a203[0] a203[1] a203[1]b a202 a34 a113 a209 "/></vehicle>
    <vehicle arrivalPos="-1" depart="10" departLane="best" departPos="0" id="Costa_1_4" type="private"><route edges="a78[0] a56a a56b a77bc a77cd a53cd a53[0] a53[1][0] a79 a68 a11 b2[0] b2[1][0] b2[1][1][0] b2[1][1][1] b2[1][1][1]b "/></vehicle>
    <vehicle arrivalPos="-1" depart="10" departLane="best" departPos="0" id="Gandhi_60_7" type="private"><route edges="b1[0] ba1[1] b1[1] a72[0] a72[1] a69 a161 a122 a1b a1 a204a[0] a204b[0] a204[1][0] a204[1][1] "/></vehicle>
    <vehicle arrivalPos="-1" depart="10" departLane="best" departPos="0" id="Pepoli_11_6" type="private"><route edges="a210 a43[0] a43[1] a201 a201c a204a[0] a124 b12 b56[0] b39[0] b39[1][0] b39[1][1][0] b39[1][1][1] b45 a67 a80 a127 a77[1][0] a77[1][1] "/></vehicle>
    <vehicle arrivalPos="-1" depart="10" departLane="best" departPos="0" id="Pertini_62_5" type="private"><route edges="b63[0] b63[1] b4[0] b28 b28a b16[1] b18 b20+19a ba1[1] b1[1] a72[0] a72[1] a69 a161 a122 a1b a1 a204a[0] a204b[0] a204[1][0] a204[1][1] "/></vehicle>
    <vehicle arrivalPos="-1" depart="11" departLane="best" departPos="0" id="Silvani_7_5" type="private"><route edges="a203[0] a203[1] a203[1]b a202 a34 a113 a209 "/></vehicle>
    <vehicle arrivalPos="-1" depart="12" departLane="best" departPos="0" id="Borgo_100_2" type="private"><route edges="b6 b100 b7 b3[1] b3[1]b "/></vehicle>
    <vehicle arrivalPos="-1" depart="12" departLane="best" departPos="0" id="Gandhi_60_8" type="private"><route edges="b1[0] ba1[1] b1[1] a72[0] a72[1] a69 a161 a122 a3 a2 a202 a34 a113 a209 "/></vehicle>
    <vehicle arrivalPos="-1" depart="12" departLane="best" departPos="0" id="Pepoli_11_7" type="private"><route edges="a210 a43[0] a43[1] a201 a201c a204a[0] a124 b12 b56[0] b56[1][0] b56[1][1] b70 "/></vehicle>
    <vehicle arrivalPos="-1" depart="12" departLane="best" departPos="0" id="Pertini_60_6" type="private"><route edges="b13[0] b14 b18 b20+19a ba1[1] b1[1] a72[0] a72[1] a69 a161 a122 a3 a2 a202 a34 a113 a209 "/></vehicle>
    <vehicle arrivalPos="-1" depart="13" departLane="best" departPos="0" id="Pepoli_11_8" type="private"><route edges="a210 a43[0] a43[1] a201 a201c a204a[0] a124 b12 b56[0] b56[1][0] b56[1][1] b5[1][0]+66 b5[1][1][1] b8 b10 "/></vehicle>
    <vehicle arrivalPos="-1" depart="14" departLane="best" departPos="0" id="Malvasia_100_3" type="private"><route edges="b52 b51 b56[0] b56[1][0] b56[1][1] b5[1][0]+66 b5[1][1][1] b8 b3[1] b3[1]b "/></vehicle>
    <vehicle arrivalPos="-1" depart="14" departLane="best" departPos="0" id="Prati_Capraia_100_3" type="private"><route edges="b3[0] b3[1] b3[1]b "/></vehicle>
    <vehicle arrivalPos="-1" depart="14" departLane="best" departPos="0" id="Silvani_3_6" type="ignoring"><route edges="a203[0] a203[1] a203[1]b a202 a34 a113 a118 a65 a57[0] a57[1] a62 a159 a42 a39 a35 a38 a15 a14  "/></vehicle>
    <vehicle arrivalPos="-1" depart="14" departLane="best" departPos="0" id="XXI_Aprile_113_4" type="private"><route edges=" a13 a104 a24 a22 a59 a53cd a53[0] a53[1][0] a79 a74 a72[1] a69 a161 a122 a1b a1 a204a[0] a124 b12 b53 b53a "/></vehicle>
    <vehicle arrivalPos="-1" depart="15" departLane="best" departPos="0" id="Costa_50_6" type="private"><route edges="a78[0] a56a am1 a21b a103 a16 a37 a36 a40 a41 a160 a61 a58[0] a58[1] a200 a60 "/></vehicle>
</routes>